Version 4
SHEET 1 880 680
WIRE -48 32 -48 -32
WIRE 256 80 256 64
WIRE 176 96 80 96
WIRE 560 96 560 32
WIRE 560 96 512 96
WIRE 352 128 352 112
WIRE 352 128 320 128
WIRE 432 128 352 128
WIRE 176 160 144 160
WIRE 560 160 560 96
WIRE 432 176 432 128
WIRE -64 256 -64 240
WIRE -64 368 -64 336
FLAG 80 96 Vin2
FLAG 176 128 Iin
FLAG 352 112 Vout
FLAG -64 368 Iin
FLAG -64 240 VDD
FLAG -48 -32 VDD
FLAG 560 -48 Vin1
FLAG 512 96 Vin2
FLAG 560 240 0
FLAG -48 112 0
FLAG 432 240 0
FLAG 256 192 0
FLAG 256 64 VDD
FLAG 144 160 Vin1
SYMBOL Amplificador 240 128 R0
WINDOW 0 0 0 Left 0
WINDOW 39 0 0 Left 0
SYMATTR InstName X1
SYMBOL voltage -48 16 R0
SYMATTR InstName V1
SYMATTR Value 3.3
SYMBOL voltage 560 144 R0
SYMATTR InstName V2
SYMATTR Value 2.3
SYMBOL voltage 560 -64 R0
WINDOW 123 24 124 Left 2
WINDOW 39 0 0 Left 0
SYMATTR Value2 AC 1
SYMATTR InstName V3
SYMATTR Value SINE(0 1 1k)
SYMBOL current -64 256 R0
SYMATTR InstName I1
SYMATTR Value 75µ
SYMBOL cap 416 176 R0
SYMATTR InstName C1
SYMATTR Value 15p
TEXT 544 -200 Left 2 !.ac dec 100 1 10G
TEXT 544 -168 Left 2 ;.tran 0 10m 0 1u
